26
Coordinates from ORCA-job r01-exo-3r-ts-opthess
  C   0.23766746054721      0.72548598274796     -0.31856764533007
  N   -0.45739579099440      1.43553400104976      0.58851294906947
  H   -0.14933977454446      1.34135844127058      1.54843962572176
  H   0.30975846352949      1.15430972772172     -1.31068986406618
  C   1.54337102672205      0.16322424620465      0.22416353269133
  C   -1.29709265300772      2.56617577140311      0.22620524767062
  C   -2.39637735368016     -0.94555097950625      0.80178426707684
  C   -1.03662971737915     -1.49387141676159      0.58931483759372
  C   -0.66708926313939     -0.92988382276454     -0.76969169084698
  C   -1.87727263505592     -0.48978791859378     -1.34418567197454
  C   -2.89120513135376     -0.43230817280301     -0.36918849402236
  H   -2.92929893356202     -1.00406346483307      1.74092026761100
  H   0.09708876418910     -1.38365987609593     -1.38762482934382
  H   -1.11113517573547     -2.58706003422800      0.49351875402673
  H   -0.34071026208348     -1.31177511465927      1.40751834851675
  H   -1.99868794362827     -0.19301938975160     -2.37801461269786
  H   -3.88632500217842     -0.04218380010423     -0.52369918991671
  H   -1.85634688187798      2.89428882516061      1.09896735472257
  H   -0.69490061596932      3.39948322582495     -0.14502297529351
  H   -2.00394797042176      2.27574417769042     -0.55278264487758
  O   2.33218469818779     -0.25572018255852     -0.74839824000053
  O   1.77833399960867      0.13637430294608      1.40437723744696
  C   3.64222651087101     -0.75399345180452     -0.35913205547546
  H   4.10859295692844     -1.07392209373776     -1.28436795014093
  H   4.20904384803647      0.04597086827235      0.11172086732446
  H   3.53216837599146     -1.58567185209012      0.33279257451432
