26
Coordinates from ORCA-job r01-endo-3s-ts-opthess
  C   0.23761386412301      0.59794406440060      0.41442671762509
  N   -0.43366675062902      1.39131315712183     -0.43357159266243
  C   -0.96414111922006      2.71117730449097     -0.09787140602472
  C   1.45960628770838     -0.07401334582626     -0.17904003752205
  H   0.36053607978417      0.98462425667424      1.41848352259666
  H   -0.30081872362433      1.18641670104829     -1.41709883139722
  C   -2.83827487505925     -0.30733501653301     -0.17567204084975
  C   -2.22709605063296     -0.24501903725656      1.17325329543939
  C   -0.90660875890200     -0.96090811426625      0.96159679719900
  C   -1.04159404169401     -1.67217495823932     -0.24068670433416
  C   -2.16957102803778     -1.21241025804584     -0.95390370701408
  H   -3.72545409384368      0.24008067461183     -0.46348576292555
  H   -0.32522264167987     -1.34637151845268      1.78968962014282
  H   -2.83397879076555     -0.85585299865496      1.85726277796887
  H   -2.19659395337332      0.74846224260413      1.61789936380750
  H   -0.35231304754228     -2.42091558648799     -0.60283005054220
  H   -2.45113773912664     -1.52519188724659     -1.94818871386692
  H   -1.87775462949071      2.90002529304446     -0.65653897797126
  H   -1.17891122994384      2.76489167440198      0.96778310241974
  H   -0.23332075099332      3.48459591294463     -0.34365806792537
  O   2.44594020457546     -0.09877063062369      0.69958375227736
  O   1.49102210126686     -0.46844934268682     -1.31494579547080
  C   3.72980104375550     -0.59925161453774      0.23927155745637
  H   4.38927646944667     -0.50511936305466      1.09498912175675
  H   3.63310041097661     -1.63693409068001     -0.07493069767787
  H   4.08005176292195      0.00659548124942     -0.59238024250516
