26
Coordinates from ORCA-job r01-exo-3s-ts-opthess
  C   0.23742523474730      0.72583176718021      0.31840704318242
  N   -0.45824208001028      1.43538311680149     -0.58858090225575
  C   -1.29878982458682      2.56533209317841     -0.22613383664193
  C   1.54331853246404      0.16424683992100     -0.22455144538192
  H   0.30946649648646      1.15478608535690      1.31047551000503
  H   -0.15042559152899      1.34128887043401     -1.54858993341039
  C   -0.66639732788106     -0.93000725770975      0.76994325455281
  C   -1.03586722667456     -1.49441863459179     -0.58890190315793
  C   -2.39601721088721     -0.94699205946662     -0.80117607603104
  C   -2.89089822559108     -0.43381581485733      0.36979788381512
  C   -1.87671405137607     -0.49050359443923      1.34459298974949
  H   0.09816048608955     -1.38323125150226      1.38781090176970
  H   -2.92910750726918     -1.00600744033095     -1.74018520475372
  H   -1.10962588865961     -2.58764240089544     -0.49293874815167
  H   -0.34025687769966     -1.31199439985068     -1.40729413795426
  H   -3.88621607521465     -0.04425239632560      0.52445717999191
  H   -1.99808353663433     -0.19359754502307      2.37838833566698
  H   -1.85807185513077      2.89331735097786     -1.09892639179898
  H   -2.00561716214671      2.27419336785259      0.55261791086545
  H   -0.69724289599168      3.39894612568822      0.14544935358818
  O   2.33267398920410     -0.25401553858083      0.74786207999904
  O   1.77796672697629      0.13729507070929     -1.40482278515163
  C   3.64282146404663     -0.75177253240875      0.35831897654496
  H   4.10972604958724     -1.07095480686025      1.28353921587893
  H   3.53292032574841     -1.58388456768838     -0.33311148283996
  H   4.20902503193262      0.04823755243096     -0.11318778808085
