6
Coordinates from ORCA-job meoh-opthess
  C   -0.01756036300745      0.00000000003658      0.01702346426823
  O   0.01882782765309      0.00000000083651      1.42343300527010
  H   1.02283843381679     -0.00000000127318     -0.34388826824099
  H   -0.51477114314854     -0.89600639477003     -0.40862592828858
  H   -0.51477114436873      0.89600639622865     -0.40862592909696
  H   -0.89023261094516     -0.00000000105853      1.74835465608821
